Mass spectrum: L-Glutamic acid; LC-ESI-QTOF; MS2; CE: 20; R=; [M+H]+
Name: L-Glutamic acid
Name: (2S)-2-azaniumyl-5-hydroxy-5-oxopentanoate
Formula: C5H9NO4
Exact mass: 147.05316
SMILES: C(CC(=O)O)[C@@H](C(=O)O)N
InChI: InChI=1S/C5H9NO4/c6-3(5(9)10)1-2-4(7)8/h3H,1-2,6H2,(H,7,8)(H,9,10)/t3-/m0/s1
Instrument: maXis plus UHR-ToF-MS, Bruker Daltonics
Instrument type: LC-ESI-QTOF
Ms type: MS2
Ion mode: POSITIVE
Ionization: ESI
Fragmentation mode: CID
Collision energy: 20
Column name: BEH C18 1.7um, 2.1x100mm, Waters
Retention time: 0.590 min
Base peak: 148.0599
Precursor m/z: 148.0604
Precursor type: [M+H]+
m/z	relative intensity
56.0491	42
69.0327	1
84.0441	999
85.028	21
85.0391	2
86.0481	1
102.0549	47
130.0506	6
148.0609	2
